#### CIF created by Crystallographica 2 ####

data_DysprosiumOxideB

_audit_creation_method                    'Crystallographica 2' 
_cell_angle_alpha                         90 
_cell_angle_beta                          100.262 
_cell_angle_gamma                         90 
_cell_formula_units_Z                     6 
_cell_length_a                            14.0814 
_cell_length_b                            3.5104 
_cell_length_c                            8.6578 
_cell_volume                              421.121 
_cgraph_comments                         'Ab initio study on structure and phase transition of A- and 
     B-type rare-earth sesquioxides Ln2 O3 (Ln= La-Lu. Y and Sc) 
     based on density function theory
'
_cgraph_title                            'Dysprosium Oxide - B'
_chemical_formula_sum                    'Dy2 O3'
_symmetry_space_group_name_H-M           'C 2/m'
_symmetry_space_group_name_Hall          '-C 2y'

loop_
        _symmetry_equiv_pos_as_xyz
        'x, y, z'
        'x+1/2, y+1/2, z'
        '-x, -y, -z'
        '-x+1/2, -y+1/2, -z'
        '-x, y, -z'
        '-x+1/2, y+1/2, -z'
        'x, -y, z'
        'x+1/2, -y+1/2, z'

loop_
        _atom_site_label
        _atom_site_type_symbol
        _atom_site_fract_x
        _atom_site_fract_y
        _atom_site_fract_z
        _atom_site_U_iso_or_equiv
        _atom_site_thermal_displace_type
        _atom_site_occupancy
        Dy1 Dy3+ 0.6346 0 0.4883 0 Uiso 1
        Dy2 Dy3+ 0.6917 0 0.1379 0 Uiso 1
        Dy3 Dy3+ 0.968 0 0.186 0 Uiso 1
        O1 O2- 0.1279 0 0.2822 0 Uiso 1
        O2 O2- 0.8253 0 0.0302 0 Uiso 1
        O3 O2- 0.7942 0 0.3771 0 Uiso 1
        O4 O2- 0.4713 0 0.3431 0 Uiso 1
        O5 O2- 0 0.5 0 0 Uiso 1

_eof

#### End of Crystallographic Information File ####
