#### CIF created by Crystallographica 2 ####

data_GadoliniumOxideHp

_audit_creation_method                    'Crystallographica 2' 
_cell_angle_alpha                         90 
_cell_angle_beta                          90 
_cell_angle_gamma                         120 
_cell_formula_units_Z                     1 
_cell_length_a                            3.68 
_cell_length_b                            3.68 
_cell_length_c                            5.597 
_cell_volume                              65.642 
_cgraph_comments                         'Structural phase transition of cubic Gd2 O3 at high 
     pressures
'
_cgraph_title                            'Gadolinium Oxide - Hp'
_chemical_formula_sum                    'Gd2 O3'
_symmetry_space_group_name_H-M           'P -3 m 1'
_symmetry_space_group_name_Hall          '-P 3 2"'

loop_
        _symmetry_equiv_pos_as_xyz
        'x, y, z'
        '-x, -y, -z'
        '-y, x-y, z'
        'y, -x+y, -z'
        '-x+y, -x, z'
        'x-y, x, -z'
        'x-y, -y, -z'
        '-x+y, y, z'
        '-x, -x+y, -z'
        'x, x-y, z'
        'y, x, -z'
        '-y, -x, z'

loop_
        _atom_site_label
        _atom_site_type_symbol
        _atom_site_fract_x
        _atom_site_fract_y
        _atom_site_fract_z
        _atom_site_U_iso_or_equiv
        _atom_site_thermal_displace_type
        _atom_site_occupancy
        Gd1 Gd3+ 0.3333 0.6667 0.253 0 Uiso 1
        O1 O2- 0.3333 0.6667 0.653 0 Uiso 1
        O2 O2- 0 0 0 0 Uiso 1

_eof

#### End of Crystallographic Information File ####
