#### CIF created by Crystallographica 2 ####

data_HafniumDioxide

_audit_creation_method                    'Crystallographica 2' 
_cell_angle_alpha                         90 
_cell_angle_beta                          90 
_cell_angle_gamma                         90 
_cell_formula_units_Z                     8 
_cell_length_a                            9.8323 
_cell_length_b                            5.1688 
_cell_length_c                            4.9617 
_cell_volume                              252.16 
_cgraph_comments                         'Low-temperature polymorphs of Zr O2 and Hf O2: a density-
     functional theory study
'
_cgraph_title                            'Hafnium Dioxide'
_chemical_formula_sum                    'Hf O2'
_symmetry_space_group_name_H-M           'P b c a'
_symmetry_space_group_name_Hall          '-P 2ac 2ab'

loop_
        _symmetry_equiv_pos_as_xyz
        'x, y, z'
        '-x, -y, -z'
        '-x+1/2, -y, z+1/2'
        'x+1/2, y, -z+1/2'
        'x+1/2, -y+1/2, -z'
        '-x+1/2, y+1/2, z'
        '-x, y+1/2, -z+1/2'
        'x, -y+1/2, z+1/2'

loop_
        _atom_site_label
        _atom_site_type_symbol
        _atom_site_fract_x
        _atom_site_fract_y
        _atom_site_fract_z
        _atom_site_U_iso_or_equiv
        _atom_site_thermal_displace_type
        _atom_site_occupancy
        Hf1 Hf4+ 0.885 0.036 0.257 0 Uiso 1
        O1 O2- 0.794 0.382 0.138 0 Uiso 1
        O2 O2- 0.975 0.738 0.496 0 Uiso 1

_eof

#### End of Crystallographic Information File ####
