#### CIF created by Crystallographica 2 ####

data_MolybdenumIVOxide

_audit_creation_method                    'Crystallographica 2' 
_cell_angle_alpha                         90 
_cell_angle_beta                          120.93 
_cell_angle_gamma                         90 
_cell_formula_units_Z                     4 
_cell_length_a                            5.606 
_cell_length_b                            4.8566 
_cell_length_c                            5.6238 
_cell_volume                              131.341 
_cgraph_comments                         'In situ X-ray analysis of Mo O3 reduction
'
_cgraph_title                            'Molybdenum(IV) Oxide'
_chemical_formula_sum                    'Mo O2'
_symmetry_space_group_name_H-M           'P 21/c'
_symmetry_space_group_name_Hall          '-P 2ybc'

loop_
        _symmetry_equiv_pos_as_xyz
        'x, y, z'
        '-x, -y, -z'
        '-x, y+1/2, -z+1/2'
        'x, -y+1/2, z+1/2'

loop_
        _atom_site_label
        _atom_site_type_symbol
        _atom_site_fract_x
        _atom_site_fract_y
        _atom_site_fract_z
        _atom_site_U_iso_or_equiv
        _atom_site_thermal_displace_type
        _atom_site_occupancy
        Mo1 Mo 0.2281 0.9935 0.0133 0.00291298 Uiso 1
        O1 O2- 0.12 0.2299 0.2748 0.00506606 Uiso 1
        O2 O2- 0.3975 0.6852 0.2918 0.00506606 Uiso 1

_eof

#### End of Crystallographic Information File ####
