#### CIF created by Crystallographica 2 ####

data_NickelOxide

_audit_creation_method                    'Crystallographica 2' 
_cell_angle_alpha                         90 
_cell_angle_beta                          90 
_cell_angle_gamma                         120 
_cell_formula_units_Z                     3 
_cell_length_a                            2.83527 
_cell_length_b                            2.83527 
_cell_length_c                            14.3319 
_cell_volume                              99.7753 
_cgraph_comments                         'Relationship between non-stoichiometry and physical 
     properties in Li Ni O2
'
_cgraph_title                            'Nickel Oxide'
_chemical_formula_sum                    'Ni O2'
_symmetry_space_group_name_H-M           'R -3 m'
_symmetry_space_group_name_Hall          '-R 3 2"'

loop_
        _symmetry_equiv_pos_as_xyz
        'x, y, z'
        'x-1/3, y+1/3, z+1/3'
        'x+1/3, y-1/3, z-1/3'
        '-x, -y, -z'
        '-x-1/3, -y+1/3, -z+1/3'
        '-x+1/3, -y-1/3, -z-1/3'
        '-y, x-y, z'
        '-y-1/3, x-y+1/3, z+1/3'
        '-y+1/3, x-y-1/3, z-1/3'
        'y, -x+y, -z'
        'y-1/3, -x+y+1/3, -z+1/3'
        'y+1/3, -x+y-1/3, -z-1/3'
        '-x+y, -x, z'
        '-x+y-1/3, -x+1/3, z+1/3'
        '-x+y+1/3, -x-1/3, z-1/3'
        'x-y, x, -z'
        'x-y-1/3, x+1/3, -z+1/3'
        'x-y+1/3, x-1/3, -z-1/3'
        'x-y, -y, -z'
        'x-y-1/3, -y+1/3, -z+1/3'
        'x-y+1/3, -y-1/3, -z-1/3'
        '-x+y, y, z'
        '-x+y-1/3, y+1/3, z+1/3'
        '-x+y+1/3, y-1/3, z-1/3'
        '-x, -x+y, -z'
        '-x-1/3, -x+y+1/3, -z+1/3'
        '-x+1/3, -x+y-1/3, -z-1/3'
        'x, x-y, z'
        'x-1/3, x-y+1/3, z+1/3'
        'x+1/3, x-y-1/3, z-1/3'
        'y, x, -z'
        'y-1/3, x+1/3, -z+1/3'
        'y+1/3, x-1/3, -z-1/3'
        '-y, -x, z'
        '-y-1/3, -x+1/3, z+1/3'
        '-y+1/3, -x-1/3, z-1/3'

loop_
        _atom_site_label
        _atom_site_type_symbol
        _atom_site_fract_x
        _atom_site_fract_y
        _atom_site_fract_z
        _atom_site_U_iso_or_equiv
        _atom_site_thermal_displace_type
        _atom_site_occupancy
        Ni1 Ni 0 0 0.5 0.00506606 Uiso 1
        O1 O2- 0 0 0.2368 0.00506606 Uiso 1

_eof

#### End of Crystallographic Information File ####
