#### CIF created by Crystallographica 2 ####

data_PraseodymiumDioxideHp

_audit_creation_method                    'Crystallographica 2' 
_cell_angle_alpha                         90 
_cell_angle_beta                          90 
_cell_angle_gamma                         90 
_cell_formula_units_Z                     4 
_cell_length_a                            6.3708 
_cell_length_b                            3.839 
_cell_length_c                            7.0259 
_cell_volume                              171.836 
_cgraph_comments                         'Orthorhombic HP-PrO2 - High pressure synthesis and crystal 
     structure
'
_cgraph_title                            'Praseodymium Dioxide - Hp'
_chemical_formula_sum                    'Pr O2'
_symmetry_space_group_name_H-M           'P n m a'
_symmetry_space_group_name_Hall          '-P 2ac 2n'

loop_
        _symmetry_equiv_pos_as_xyz
        'x, y, z'
        '-x, -y, -z'
        '-x+1/2, -y, z+1/2'
        'x+1/2, y, -z+1/2'
        'x+1/2, -y+1/2, -z+1/2'
        '-x+1/2, y+1/2, z+1/2'
        '-x, y+1/2, -z'
        'x, -y+1/2, z'

loop_
        _atom_site_label
        _atom_site_type_symbol
        _atom_site_fract_x
        _atom_site_fract_y
        _atom_site_fract_z
        _atom_site_U_iso_or_equiv
        _atom_site_thermal_displace_type
        _atom_site_occupancy
        Pr1 Pr4+ 0.2733 0.25 0.3988 0.0091 Uiso 1
        O1 O2- 0.1462 0.25 0.0799 0.0103 Uiso 1
        O2 O2- 0.024 0.25 0.6651 0.0115 Uiso 1

_eof

#### End of Crystallographic Information File ####
