#### CIF created by Crystallographica 2 ####

data_ZirconiumDioxide

_audit_creation_method                    'Crystallographica 2' 
_cell_angle_alpha                         90 
_cell_angle_beta                          98.17 
_cell_angle_gamma                         90 
_cell_formula_units_Z                     4 
_cell_length_a                            5.195 
_cell_length_b                            5.225 
_cell_length_c                            5.342 
_cell_volume                              143.531 
_cgraph_comments                         'Carbonization effect on phase structures of zirconium 
     oxides with 2-3 percent yttrium
'
_cgraph_title                            'Zirconium Dioxide'
_chemical_formula_sum                    'Zr O2'
_symmetry_space_group_name_H-M           'P 21/c'
_symmetry_space_group_name_Hall          '-P 2ybc'

loop_
        _symmetry_equiv_pos_as_xyz
        'x, y, z'
        '-x, -y, -z'
        '-x, y+1/2, -z+1/2'
        'x, -y+1/2, z+1/2'

loop_
        _atom_site_label
        _atom_site_type_symbol
        _atom_site_fract_x
        _atom_site_fract_y
        _atom_site_fract_z
        _atom_site_U_iso_or_equiv
        _atom_site_thermal_displace_type
        _atom_site_occupancy
        Zr1 Zr4+ 0.2718 0.0324 0.2106 0.0086123 Uiso 1
        O1 O2- 0.0725 0.3427 0.2996 0.00240638 Uiso 1
        O2 O2- 0.4468 0.7612 0.4564 0.00721913 Uiso 1

_eof

#### End of Crystallographic Information File ####
